0000-                  4       ;
0000-                  5       ; Tiny font created by EPTO, adapted from sources documented at the following
0000-                  6       ; blog post: https://www.jimblimey.com/blog/24-zx-spectrum-fonts/
0000-                  7       ;
0000-00 00 00 00 
     00 00 00 00       8               .db 0,0,0,0,0,0,0,0
0008-10 10 10 10 
     10 00 10 00       9               .db 16,16,16,16,16,0,16,0
0010-44 22 00 00 
     00 00 00 00      10               .db 68,34,0,0,0,0,0,0
0018-28 28 FE 28 
     FE 28 28 00      11               .db 40,40,254,40,254,40,40,0
0020-28 7C A8 7C 
     2A 7C 28 00      12               .db 40,124,168,124,42,124,40,0
0028-60 94 68 10 
     2C 52 8C 00      13               .db 96,148,104,16,44,82,140,0
0030-30 48 30 48 
     86 84 78 00      14               .db 48,72,48,72,134,132,120,0
0038-04 04 08 00 
     00 00 00 00      15               .db 4,4,8,0,0,0,0,0
0040-10 20 40 40 
     40 20 10 00      16               .db 16,32,64,64,64,32,16,0
0048-10 08 04 04 
     04 08 10 00      17               .db 16,8,4,4,4,8,16,0
0050-00 54 38 7C 
     38 54 00 00      18               .db 0,84,56,124,56,84,0,0
0058-00 08 08 3E 
     08 08 00 00      19               .db 0,8,8,62,8,8,0,0
0060-00 00 00 00 
     00 00 08 10      20               .db 0,0,0,0,0,0,8,16
0068-00 00 00 7E 
     00 00 00 00      21               .db 0,0,0,126,0,0,0,0
0070-00 00 00 00 
     00 00 08 00      22               .db 0,0,0,0,0,0,8,0
0078-02 04 08 10 
     20 40 80 00      23               .db 2,4,8,16,32,64,128,0
0080-00 18 24 2C 
     34 24 18 00      24               .db 0,24,36,44,52,36,24,0
0088-00 10 30 10 
     10 10 38 00      25               .db 0,16,48,16,16,16,56,0
0090-00 18 24 04 
     18 20 3C 00      26               .db 0,24,36,4,24,32,60,0
0098-00 38 04 18 
     04 04 38 00      27               .db 0,56,4,24,4,4,56,0
00A0-00 20 28 28 
     3C 08 08 00      28               .db 0,32,40,40,60,8,8,0
00A8-00 3C 20 38 
     04 04 38 00      29               .db 0,60,32,56,4,4,56,0
00B0-00 1C 20 38 
     24 24 18 00      30               .db 0,28,32,56,36,36,24,0
00B8-00 3C 04 08 
     10 10 10 00      31               .db 0,60,4,8,16,16,16,0
00C0-00 18 24 18 
     24 24 18 00      32               .db 0,24,36,24,36,36,24,0
00C8-00 18 24 24 
     1C 04 38 00      33               .db 0,24,36,36,28,4,56,0
00D0-00 10 00 00 
     00 10 00 00      34               .db 0,16,0,0,0,16,0,0
00D8-00 10 00 00 
     00 10 20 00      35               .db 0,16,0,0,0,16,32,0
00E0-00 08 10 20 
     10 08 00 00      36               .db 0,8,16,32,16,8,0,0
00E8-00 00 7E 00 
     7E 00 00 00      37               .db 0,0,126,0,126,0,0,0
00F0-00 20 10 08 
     10 20 00 00      38               .db 0,32,16,8,16,32,0,0
00F8-7C 82 04 08 
     10 00 10 00      39               .db 124,130,4,8,16,0,16,0
0100-7C 82 9A AA 
     AA 9E 7C 00      40               .db 124,130,154,170,170,158,124,0
0108-00 18 24 24 
     3C 24 24 00      41               .db 0,24,36,36,60,36,36,0
0110-00 38 24 38 
     24 24 38 00      42               .db 0,56,36,56,36,36,56,0
0118-00 18 24 20 
     20 24 18 00      43               .db 0,24,36,32,32,36,24,0
0120-00 38 24 24 
     24 24 38 00      44               .db 0,56,36,36,36,36,56,0
0128-00 3C 20 38 
     20 20 3C 00      45               .db 0,60,32,56,32,32,60,0
0130-00 3C 20 38 
     20 20 20 00      46               .db 0,60,32,56,32,32,32,0
0138-00 18 24 20 
     2C 24 18 00      47               .db 0,24,36,32,44,36,24,0
0140-00 24 24 3C 
     24 24 24 00      48               .db 0,36,36,60,36,36,36,0
0148-00 38 10 10 
     10 10 38 00      49               .db 0,56,16,16,16,16,56,0
0150-00 04 04 04 
     04 24 18 00      50               .db 0,4,4,4,4,36,24,0
0158-00 28 28 30 
     28 24 24 00      51               .db 0,40,40,48,40,36,36,0
0160-00 20 20 20 
     20 20 3C 00      52               .db 0,32,32,32,32,32,60,0
0168-00 44 6C 54 
     44 44 44 00      53               .db 0,68,108,84,68,68,68,0
0170-00 24 34 34 
     2C 2C 24 00      54               .db 0,36,52,52,44,44,36,0
0178-00 18 24 24 
     24 24 18 00      55               .db 0,24,36,36,36,36,24,0
0180-00 38 24 24 
     38 20 20 00      56               .db 0,56,36,36,56,32,32,0
0188-00 18 24 24 
     24 24 1C 02      57               .db 0,24,36,36,36,36,28,2
0190-00 38 24 24 
     38 24 24 00      58               .db 0,56,36,36,56,36,36,0
0198-00 1C 20 18 
     04 04 38 00      59               .db 0,28,32,24,4,4,56,0
01A0-00 38 10 10 
     10 10 10 00      60               .db 0,56,16,16,16,16,16,0
01A8-00 24 24 24 
     24 24 3C 00      61               .db 0,36,36,36,36,36,60,0
01B0-00 24 24 24 
     24 14 0C 00      62               .db 0,36,36,36,36,20,12,0
01B8-00 44 44 44 
     54 6C 44 00      63               .db 0,68,68,68,84,108,68,0
01C0-00 24 24 10 
     08 24 24 00      64               .db 0,36,36,16,8,36,36,0
01C8-00 22 22 14 
     08 08 08 00      65               .db 0,34,34,20,8,8,8,0
01D0-00 3C 04 08 
     10 20 3C 00      66               .db 0,60,4,8,16,32,60,0
01D8-1C 10 10 10 
     10 10 1C 00      67               .db 28,16,16,16,16,16,28,0
01E0-80 40 20 10 
     08 04 02 00      68               .db 128,64,32,16,8,4,2,0
01E8-70 10 10 10 
     10 10 70 00      69               .db 112,16,16,16,16,16,112,0
01F0-00 00 10 38 
     6C C6 00 00      70               .db 0,0,16,56,108,198,0,0
01F8-00 00 00 00 
     00 00 00 FF      71               .db 0,0,0,0,0,0,0,255
0200-10 10 08 00 
     00 00 00 00      72               .db 16,16,8,0,0,0,0,0
0208-00 00 18 24 
     3C 24 24 00      73               .db 0,0,24,36,60,36,36,0
0210-00 00 38 24 
     38 24 38 00      74               .db 0,0,56,36,56,36,56,0
0218-00 00 18 24 
     20 24 18 00      75               .db 0,0,24,36,32,36,24,0
0220-00 00 38 24 
     24 24 38 00      76               .db 0,0,56,36,36,36,56,0
0228-00 00 3C 20 
     38 20 3C 00      77               .db 0,0,60,32,56,32,60,0
0230-00 00 3C 20 
     38 20 20 00      78               .db 0,0,60,32,56,32,32,0
0238-00 00 1C 20 
     2C 24 18 00      79               .db 0,0,28,32,44,36,24,0
0240-00 00 24 24 
     3C 24 24 00      80               .db 0,0,36,36,60,36,36,0
0248-00 00 1C 08 
     08 08 1C 00      81               .db 0,0,28,8,8,8,28,0
0250-00 00 04 04 
     04 24 18 00      82               .db 0,0,4,4,4,36,24,0
0258-00 00 24 28 
     30 28 24 00      83               .db 0,0,36,40,48,40,36,0
0260-00 00 20 20 
     20 20 3C 00      84               .db 0,0,32,32,32,32,60,0
0268-00 00 42 66 
     5A 42 42 00      85               .db 0,0,66,102,90,66,66,0
0270-00 00 24 34 
     3C 2C 24 00      86               .db 0,0,36,52,60,44,36,0
0278-00 00 18 24 
     24 24 18 00      87               .db 0,0,24,36,36,36,24,0
0280-00 00 38 24 
     38 20 20 00      88               .db 0,0,56,36,56,32,32,0
0288-00 00 18 24 
     24 24 1C 02      89               .db 0,0,24,36,36,36,28,2
0290-00 00 38 24 
     38 24 24 00      90               .db 0,0,56,36,56,36,36,0
0298-00 00 1C 20 
     18 04 38 00      91               .db 0,0,28,32,24,4,56,0
02A0-00 00 38 10 
     10 10 10 00      92               .db 0,0,56,16,16,16,16,0
02A8-00 00 24 24 
     24 24 3C 00      93               .db 0,0,36,36,36,36,60,0
02B0-00 00 24 24 
     24 14 0C 00      94               .db 0,0,36,36,36,20,12,0
02B8-00 00 42 42 
     5A 66 42 00      95               .db 0,0,66,66,90,102,66,0
02C0-00 00 44 28 
     10 28 44 00      96               .db 0,0,68,40,16,40,68,0
02C8-00 00 44 28 
     10 10 10 00      97               .db 0,0,68,40,16,16,16,0
02D0-00 00 7C 08 
     10 20 7C 00      98               .db 0,0,124,8,16,32,124,0
02D8-0E 10 10 20 
     10 10 0E 00      99               .db 14,16,16,32,16,16,14,0
02E0-08 08 08 00 
     08 08 08 00     100               .db 8,8,8,0,8,8,8,0
02E8-E0 10 10 08 
     10 10 E0 00     101               .db 224,16,16,8,16,16,224,0
02F0-00 00 60 92 
     0C 00 00 00     102               .db 0,0,96,146,12,0,0,0
02F8-00 00 18 24 
     42 FF 00 00     103               .db 0,0,24,36,66,255,0,0
