0000-                  4       ;
0000-                  5       ; Fant8 font created by EPTO, adapted from sources documented at the following
0000-                  6       ; blog post: https://www.jimblimey.com/blog/24-zx-spectrum-fonts/
0000-                  7       ;
0000-00 00 00 00 
     00 00 00 00       8               .db 0,0,0,0,0,0,0,0
0008-1C 3C 78 70 
     30 00 30 00       9               .db 28,60,120,112,48,0,48,0
0010-76 6C D8 00 
     00 00 00 00      10               .db 118,108,216,0,0,0,0,0
0018-36 6C FE 6C 
     FE 6C D8 00      11               .db 54,108,254,108,254,108,216,0
0020-10 3E 70 7C 
     1C F8 10 00      12               .db 16,62,112,124,28,248,16,0
0028-00 66 CC 18 
     30 66 CC 00      13               .db 0,102,204,24,48,102,204,0
0030-18 2C 28 76 
     DC C8 76 00      14               .db 24,44,40,118,220,200,118,0
0038-1C 18 30 00 
     00 00 00 00      15               .db 28,24,48,0,0,0,0,0
0040-0C 18 30 30 
     30 38 1C 00      16               .db 12,24,48,48,48,56,28,0
0048-30 18 0C 0C 
     0C 1C 38 00      17               .db 48,24,12,12,12,28,56,0
0050-00 66 3C FF 
     3C 66 00 00      18               .db 0,102,60,255,60,102,0,0
0058-00 0C 18 7E 
     18 30 00 00      19               .db 0,12,24,126,24,48,0,0
0060-00 00 00 00 
     00 1C 18 30      20               .db 0,0,0,0,0,28,24,48
0068-00 00 00 3E 
     7C 00 00 00      21               .db 0,0,0,62,124,0,0,0
0070-00 00 00 00 
     00 18 30 00      22               .db 0,0,0,0,0,24,48,0
0078-03 06 0C 18 
     30 60 C0 00      23               .db 3,6,12,24,48,96,192,0
0080-FC 36 6E 7E 
     76 6E 3C 00      24               .db 252,54,110,126,118,110,60,0
0088-3C 0C 18 18 
     18 18 7E 00      25               .db 60,12,24,24,24,24,126,0
0090-3E 66 06 3C 
     60 66 7E 00      26               .db 62,102,6,60,96,102,126,0
0098-3E 66 06 1C 
     06 66 7C 00      27               .db 62,102,6,28,6,102,124,0
00A0-6E CC CC FE 
     0C 0C 1C 00      28               .db 110,204,204,254,12,12,28,0
00A8-FE 36 60 7C 
     06 66 7C 00      29               .db 254,54,96,124,6,102,124,0
00B0-FE 36 60 7C 
     66 66 3C 00      30               .db 254,54,96,124,102,102,60,0
00B8-3E 66 06 1C 
     18 18 18 00      31               .db 62,102,6,28,24,24,24,0
00C0-FC 36 66 3C 
     66 66 3C 00      32               .db 252,54,102,60,102,102,60,0
00C8-FC 36 66 3E 
     06 66 7C 00      33               .db 252,54,102,62,6,102,124,0
00D0-00 18 30 00 
     00 18 30 00      34               .db 0,24,48,0,0,24,48,0
00D8-00 0C 18 00 
     00 1C 18 30      35               .db 0,12,24,0,0,28,24,48
00E0-0C 18 30 60 
     30 18 0C 00      36               .db 12,24,48,96,48,24,12,0
00E8-00 3E 7C 00 
     3E 7C 00 00      37               .db 0,62,124,0,62,124,0,0
00F0-30 18 0C 06 
     0C 18 30 00      38               .db 48,24,12,6,12,24,48,0
00F8-7C 66 06 1C 
     18 00 18 00      39               .db 124,102,6,28,24,0,24,0
0100-FC 66 C6 DE 
     DC C0 7E 00      40               .db 252,102,198,222,220,192,126,0
0108-FC 36 66 7E 
     66 66 C3 00      41               .db 252,54,102,126,102,102,195,0
0110-FC 36 66 7C 
     66 6E FC 00      42               .db 252,54,102,124,102,110,252,0
0118-FE 34 60 60 
     60 66 3C 00      43               .db 254,52,96,96,96,102,60,0
0120-FC 36 66 66 
     66 66 FC 00      44               .db 252,54,102,102,102,102,252,0
0128-FE 36 60 78 
     60 66 FE 00      45               .db 254,54,96,120,96,102,254,0
0130-FE 36 60 78 
     60 60 C0 00      46               .db 254,54,96,120,96,96,192,0
0138-FE 36 60 6E 
     66 66 3E 00      47               .db 254,54,96,110,102,102,62,0
0140-F6 36 66 7E 
     66 66 C6 00      48               .db 246,54,102,126,102,102,198,0
0148-3E 0C 18 18 
     18 18 7E 00      49               .db 62,12,24,24,24,24,126,0
0150-3E 66 0C 0C 
     4C CC 78 00      50               .db 62,102,12,12,76,204,120,0
0158-F6 36 66 7C 
     66 66 E6 00      51               .db 246,54,102,124,102,102,230,0
0160-F0 30 60 60 
     60 66 FE 00      52               .db 240,48,96,96,96,102,254,0
0168-F3 37 7F 6B 
     63 63 E3 00      53               .db 243,55,127,107,99,99,227,0
0170-F6 36 76 7E 
     6E 66 E6 00      54               .db 246,54,118,126,110,102,230,0
0178-FC 36 66 66 
     66 6E 3C 00      55               .db 252,54,102,102,102,110,60,0
0180-FC 36 66 7C 
     60 60 C0 00      56               .db 252,54,102,124,96,96,192,0
0188-FC 36 66 66 
     6E 6E 3C 00      57               .db 252,54,102,102,110,110,60,0
0190-FC 36 66 7C 
     66 66 EE 00      58               .db 252,54,102,124,102,102,238,0
0198-FE 66 C0 7C 
     06 CE FC 00      59               .db 254,102,192,124,6,206,252,0
01A0-FE 0E 18 18 
     18 18 3C 00      60               .db 254,14,24,24,24,24,60,0
01A8-F6 36 66 66 
     66 66 3E 00      61               .db 246,54,102,102,102,102,62,0
01B0-F6 36 66 66 
     6C 7C F8 00      62               .db 246,54,102,102,108,124,248,0
01B8-F3 33 63 6B 
     7F 77 E3 00      63               .db 243,51,99,107,127,119,227,0
01C0-F6 36 6C 38 
     6C C6 C6 00      64               .db 246,54,108,56,108,198,198,0
01C8-F6 36 66 3E 
     06 66 7C 00      65               .db 246,54,102,62,6,102,124,0
01D0-7E 66 0C 38 
     60 66 7E 00      66               .db 126,102,12,56,96,102,126,0
01D8-3E 18 30 30 
     30 30 3C 00      67               .db 62,24,48,48,48,48,60,0
01E0-C0 60 30 18 
     0C 06 03 00      68               .db 192,96,48,24,12,6,3,0
01E8-3E 06 0C 0C 
     0C 0C 3C 00      69               .db 62,6,12,12,12,12,60,0
01F0-10 38 6C C6 
     00 00 00 00      70               .db 16,56,108,198,0,0,0,0
01F8-00 00 00 00 
     00 00 00 FE      71               .db 0,0,0,0,0,0,0,254
0200-38 18 0C 00 
     00 00 00 00      72               .db 56,24,12,0,0,0,0,0
0208-00 00 3C 06 
     3E 66 7E 00      73               .db 0,0,60,6,62,102,126,0
0210-30 60 7C 6E 
     66 66 FC 00      74               .db 48,96,124,110,102,102,252,0
0218-00 00 FC 36 
     60 66 3C 00      75               .db 0,0,252,54,96,102,60,0
0220-0C 06 1E 36 
     66 66 3F 00      76               .db 12,6,30,54,102,102,63,0
0228-00 00 FC 36 
     7E 60 3E 00      77               .db 0,0,252,54,126,96,62,0
0230-0E 1A 30 78 
     30 30 78 00      78               .db 14,26,48,120,48,48,120,0
0238-00 00 3E 6C 
     CC 7C 0C F8      79               .db 0,0,62,108,204,124,12,248
0240-30 60 7C 76 
     66 66 EC 00      80               .db 48,96,124,118,102,102,236,0
0248-0C 00 0C 18 
     18 18 3C 00      81               .db 12,0,12,24,24,24,60,0
0250-06 00 06 0C 
     0C 0C CC 78      82               .db 6,0,6,12,12,12,204,120
0258-30 60 66 6C 
     78 6C C6 00      83               .db 48,96,102,108,120,108,198,0
0260-0C 18 18 18 
     18 18 30 00      84               .db 12,24,24,24,24,24,48,0
0268-00 00 6C FE 
     D6 C6 CC 00      85               .db 0,0,108,254,214,198,204,0
0270-00 00 5C 76 
     66 66 6C 00      86               .db 0,0,92,118,102,102,108,0
0278-00 00 7C 36 
     66 6E 3C 00      87               .db 0,0,124,54,102,110,60,0
0280-00 00 FC 36 
     66 7C 60 C0      88               .db 0,0,252,54,102,124,96,192
0288-00 00 3E 6C 
     CC 7C 0C 18      89               .db 0,0,62,108,204,124,12,24
0290-00 00 FC 6E 
     60 60 C0 00      90               .db 0,0,252,110,96,96,192,0
0298-00 00 1E 30 
     7C 06 FC 00      91               .db 0,0,30,48,124,6,252,0
02A0-0C 18 7C 30 
     30 34 78 00      92               .db 12,24,124,48,48,52,120,0
02A8-00 00 6C CC 
     CC CC 78 00      93               .db 0,0,108,204,204,204,120,0
02B0-00 00 36 66 
     66 3C 18 00      94               .db 0,0,54,102,102,60,24,0
02B8-00 00 66 C6 
     D6 7C 68 00      95               .db 0,0,102,198,214,124,104,0
02C0-00 00 66 6C 
     38 6C CC 00      96               .db 0,0,102,108,56,108,204,0
02C8-00 00 36 66 
     66 3C 18 F0      97               .db 0,0,54,102,102,60,24,240
02D0-00 00 3E 6C 
     18 36 7C 00      98               .db 0,0,62,108,24,54,124,0
02D8-07 0C 18 70 
     18 18 0E 00      99               .db 7,12,24,112,24,24,14,0
02E0-18 18 18 18 
     18 18 18 00     100               .db 24,24,24,24,24,24,24,0
02E8-3C 0C 18 0E 
     18 18 70 00     101               .db 60,12,24,14,24,24,112,0
02F0-76 DC 00 00 
     00 00 00 00     102               .db 118,220,0,0,0,0,0,0
02F8-AA 55 AA 55 
     AA 55 AA 55     103               .db 170,85,170,85,170,85,170,85
